/*--------------------------------*- C++ -*----------------------------------*\
  =========                 |
  \\      /  F ield         | OpenFOAM: The Open Source CFD Toolbox
   \\    /   O peration     | Website:  https://openfoam.org
    \\  /    A nd           | Version:  13
     \\/     M anipulation  |
\*---------------------------------------------------------------------------*/
FoamFile
{
    format      ascii;
    class       polyBoundaryMesh;
    location    "constant/polyMesh";
    object      boundary;
}
// * * * * * * * * * * * * * * * * * * * * * * * * * * * * * * * * * * * * * //

9
(
    solid_per1
    {
        type            wall;
        inGroups        List<word> 1(wall);
        nFaces          3;
        startFace       322;
    }
    fluid_per1
    {
        type            wall;
        inGroups        List<word> 1(wall);
        nFaces          5;
        startFace       325;
    }
    top
    {
        type            wall;
        inGroups        List<word> 1(wall);
        nFaces          30;
        startFace       330;
    }
    bottom
    {
        type            wall;
        inGroups        List<word> 1(wall);
        nFaces          20;
        startFace       360;
    }
    solid_per2
    {
        type            wall;
        inGroups        List<word> 1(wall);
        nFaces          3;
        startFace       380;
    }
    fluid_per2
    {
        type            wall;
        inGroups        List<word> 1(wall);
        nFaces          5;
        startFace       383;
    }
    solid_sym
    {
        type            wall;
        inGroups        List<word> 1(wall);
        nFaces          180;
        startFace       388;
    }
    fluid_sym
    {
        type            wall;
        inGroups        List<word> 1(wall);
        nFaces          200;
        startFace       568;
    }
    int_fluid
    {
        type            wall;
        inGroups        List<word> 1(wall);
        nFaces          20;
        startFace       768;
    }
    int_solid
    {
        type            wall;
        inGroups        List<word> 1(wall);
        nFaces          30;
        startFace       788;
    }
)

// ************************************************************************* //
